<?xml version="1.0" encoding="UTF-8"?>

<!-- generated on 2025-03-06 11:16:14 by Eclipse SUMO netedit Version 1.22.0
-->

<routes xmlns:xsi="http://www.w3.org/2001/XMLSchema-instance" xsi:noNamespaceSchemaLocation="http://sumo.dlr.de/xsd/routes_file.xsd">
    <!-- VTypes -->
    <vType id="emergency" vClass="emergency" guiShape="emergency"/>
    <vType id="t_0"/>
    <!-- Vehicles, persons and containers (sorted by depart) -->
    <trip id="emergency" type="emergency" depart="0.00" from="-E4" to="E3"/>
    <flow id="f_0" begin="0.00" from="E0" to="E2" end="3600.00" vehsPerHour="1800"/>
    <flow id="f_1" begin="0.00" from="-E2" to="-E0" end="3600.00" vehsPerHour="1800"/>
    <flow id="f_2" begin="0.00" from="-E1" to="E3" end="3600.00" vehsPerHour="1800"/>
    <flow id="f_3" begin="0.00" from="-E3" to="E1" end="3600.00" vehsPerHour="1800"/>
</routes>
