<?xml version="1.0" encoding="UTF-8"?>

<!-- generated on 2025-03-10 13:54:16 by Eclipse SUMO netedit Version 1.22.0
-->

<routes xmlns:xsi="http://www.w3.org/2001/XMLSchema-instance" xsi:noNamespaceSchemaLocation="http://sumo.dlr.de/xsd/routes_file.xsd">
    <!-- VTypes -->
    <vType id="emergency" vClass="emergency" guiShape="emergency"/>
    <!-- Vehicles, persons and containers (sorted by depart) -->
    <trip id="emergency" type="emergency" depart="0.00" from="Node1-2-EB" to="-E3" via="Node2-5-SB"/>
    <flow id="f_0" begin="0.00" from="-E5" to="E2" via="Node2-5-NB E1" end="3600.00" vehsPerHour="1800"/>
</routes>
