<?xml version="1.0" encoding="UTF-8"?>

<!-- generated on 2025-03-10 10:41:14 by Eclipse SUMO netedit Version 1.22.0
-->

<routes xmlns:xsi="http://www.w3.org/2001/XMLSchema-instance" xsi:noNamespaceSchemaLocation="http://sumo.dlr.de/xsd/routes_file.xsd">
    <!-- VTypes -->
    <vType id="DEFAULT_VEHTYPE" vClass="motorcycle"/>
    <vType id="emergency" vClass="emergency" guiShape="emergency"/>
    <vType id="motor" vClass="motorcycle"/>
    <!-- Vehicles, persons and containers (sorted by depart) -->
    <trip id="t_0" type="motor" depart="0.00" from="E0" to="E1"/>
    <trip id="t_1" depart="0.00" from="E0" to="E4"/>
    <trip id="t_2" type="emergency" depart="0.00" from="-E2" to="E4"/>
    <trip id="t_3" depart="0.00" from="-E3" to="-E0"/>
    <trip id="t_4" depart="0.00" from="-E1" to="E2"/>
    <trip id="t_5" depart="0.00" from="-E4" to="E2"/>
    <trip id="t_6" depart="0.00" from="-E3" to="-E0"/>
    <trip id="t_7" depart="0.00" from="-E1" to="E4"/>
    <trip id="t_8" depart="0.00" from="-E4" to="E3"/>
</routes>
