<?xml version="1.0" encoding="UTF-8"?>

<!-- generated on 2025-03-10 10:41:19 by Eclipse SUMO sumo Version 1.22.0
-->

<sumoConfiguration xmlns:xsi="http://www.w3.org/2001/XMLSchema-instance" xsi:noNamespaceSchemaLocation="http://sumo.dlr.de/xsd/sumoConfiguration.xsd">

    <input>
        <net-file value="keputihadaptif.net.xml"/>
        <route-files value="keputihadaptif.rou.xml"/>
    </input>

</sumoConfiguration>
