<?xml version="1.0" encoding="UTF-8"?>

<!-- generated on 2025-03-10 10:39:25 by Eclipse SUMO netedit Version 1.22.0
<neteditConfiguration xmlns:xsi="http://www.w3.org/2001/XMLSchema-instance" xsi:noNamespaceSchemaLocation="http://sumo.dlr.de/xsd/neteditConfiguration.xsd">

    <input>
        <route-files value="C:\Users\kiyol\Documents\Project ITS\keputihadaptif\keputihadaptif.rou.xml"/>
        <sumo-net-file value="C:\Users\kiyol\Documents\Project ITS\keputihadaptif\keputihadaptif.net.xml"/>
    </input>

    <output>
        <output-file value="C:\Users\kiyol\Documents\Project ITS\keputihadaptif\keputihadaptif.net.xml"/>
    </output>

    <processing>
        <offset.disable-normalization value="true"/>
    </processing>

    <junctions>
        <no-turnarounds value="true"/>
    </junctions>

    <netedit>
        <new-network value="false"/>
    </netedit>

</neteditConfiguration>
-->

<net version="1.20" junctionCornerDetail="5" limitTurnSpeed="5.50" xmlns:xsi="http://www.w3.org/2001/XMLSchema-instance" xsi:noNamespaceSchemaLocation="http://sumo.dlr.de/xsd/net_file.xsd">

    <location netOffset="0.00,0.00" convBoundary="-126.15,-81.60,73.48,106.59" origBoundary="10000000000.00,10000000000.00,-10000000000.00,-10000000000.00" projParameter="!"/>

    <edge id=":J1_0" function="internal">
        <lane id=":J1_0_0" index="0" speed="7.18" length="15.36" shape="-6.56,5.87 -12.15,3.36 -16.14,2.51 -18.54,3.33 -19.34,5.82"/>
    </edge>
    <edge id=":J1_1" function="internal">
        <lane id=":J1_1_0" index="0" speed="13.89" length="23.03" shape="-6.56,5.87 -11.10,3.69 -17.13,1.13 -23.28,-0.99 -28.13,-1.88"/>
    </edge>
    <edge id=":J1_2" function="internal">
        <lane id=":J1_2_0" index="0" speed="11.86" length="24.01" shape="-6.56,5.87 -13.53,1.63 -18.33,-2.64 -20.96,-6.95 -21.42,-11.30"/>
    </edge>
    <edge id=":J1_3" function="internal">
        <lane id=":J1_3_0" index="0" speed="6.29" length="15.33" shape="-6.56,5.87 -9.35,2.95 -9.62,-0.67 -7.70,-3.73 -3.87,-5.02"/>
    </edge>
    <edge id=":J1_4" function="internal">
        <lane id=":J1_4_0" index="0" speed="5.58" length="11.65" shape="-3.87,-1.82 -7.90,-1.53 -9.44,-0.62 -8.50,0.90 -5.08,3.04"/>
    </edge>
    <edge id=":J1_5" function="internal">
        <lane id=":J1_5_0" index="0" speed="9.19" length="19.08" shape="-3.87,-1.82 -10.64,-1.36 -15.47,0.07 -18.37,2.46 -19.34,5.82"/>
    </edge>
    <edge id=":J1_6" function="internal">
        <lane id=":J1_6_0" index="0" speed="13.89" length="24.26" shape="-3.87,-1.82 -28.13,-1.88"/>
    </edge>
    <edge id=":J1_7" function="internal">
        <lane id=":J1_7_0" index="0" speed="9.50" length="8.51" shape="-3.87,-1.82 -12.06,-2.43 -12.34,-2.52"/>
    </edge>
    <edge id=":J1_20" function="internal">
        <lane id=":J1_20_0" index="0" speed="9.50" length="14.10" shape="-12.34,-2.52 -17.71,-4.21 -20.83,-7.17 -21.42,-11.30"/>
    </edge>
    <edge id=":J1_8" function="internal">
        <lane id=":J1_8_0" index="0" speed="8.33" length="17.11" shape="-18.25,-10.84 -17.67,-8.31 -15.07,-6.50 -10.47,-5.40 -3.87,-5.02"/>
    </edge>
    <edge id=":J1_9" function="internal">
        <lane id=":J1_9_0" index="0" speed="10.89" length="20.11" shape="-18.25,-10.84 -17.78,-7.54 -15.43,-4.13 -11.19,-0.60 -5.08,3.04"/>
    </edge>
    <edge id=":J1_10" function="internal">
        <lane id=":J1_10_0" index="0" speed="13.89" length="16.71" shape="-18.25,-10.84 -18.72,-6.85 -19.06,-2.53 -19.27,1.80 -19.34,5.82"/>
    </edge>
    <edge id=":J1_11" function="internal">
        <lane id=":J1_11_0" index="0" speed="8.60" length="4.08" shape="-18.25,-10.84 -19.36,-6.91"/>
    </edge>
    <edge id=":J1_21" function="internal">
        <lane id=":J1_21_0" index="0" speed="8.60" length="10.70" shape="-19.36,-6.91 -21.37,-4.11 -24.30,-2.43 -28.13,-1.88"/>
    </edge>
    <edge id=":J1_12" function="internal">
        <lane id=":J1_12_0" index="0" speed="7.22" length="10.13" shape="-28.13,-5.08 -25.53,-5.46 -23.55,-6.63 -22.18,-8.57 -21.42,-11.30"/>
    </edge>
    <edge id=":J1_13" function="internal">
        <lane id=":J1_13_0" index="0" speed="13.89" length="24.26" shape="-28.13,-5.08 -3.87,-5.02"/>
    </edge>
    <edge id=":J1_14" function="internal">
        <lane id=":J1_14_0" index="0" speed="13.89" length="3.96" shape="-28.13,-5.08 -24.24,-4.36"/>
    </edge>
    <edge id=":J1_15" function="internal">
        <lane id=":J1_15_0" index="0" speed="8.44" length="3.91" shape="-28.13,-5.08 -24.28,-4.39"/>
    </edge>
    <edge id=":J1_22" function="internal">
        <lane id=":J1_22_0" index="0" speed="13.89" length="20.58" shape="-24.24,-4.36 -23.04,-4.13 -16.39,-1.89 -9.84,0.79 -5.08,3.04"/>
    </edge>
    <edge id=":J1_23" function="internal">
        <lane id=":J1_23_0" index="0" speed="8.44" length="12.00" shape="-24.28,-4.39 -21.53,-2.34 -19.89,1.06 -19.34,5.82"/>
    </edge>
    <edge id=":J1_16" function="internal">
        <lane id=":J1_16_0" index="0" speed="7.05" length="10.77" shape="-22.54,5.82 -22.89,2.46 -23.94,0.05 -25.68,-1.39 -28.13,-1.88"/>
    </edge>
    <edge id=":J1_17" function="internal">
        <lane id=":J1_17_0" index="0" speed="13.89" length="17.16" shape="-22.54,5.82 -22.47,1.73 -22.25,-2.76 -21.90,-7.24 -21.42,-11.30"/>
    </edge>
    <edge id=":J1_18" function="internal">
        <lane id=":J1_18_0" index="0" speed="10.28" length="3.26" shape="-22.54,5.82 -21.76,2.65"/>
    </edge>
    <edge id=":J1_19" function="internal">
        <lane id=":J1_19_0" index="0" speed="8.56" length="3.39" shape="-22.54,5.82 -21.76,2.52"/>
    </edge>
    <edge id=":J1_24" function="internal">
        <lane id=":J1_24_0" index="0" speed="10.28" length="20.89" shape="-21.76,2.65 -21.37,1.06 -17.87,-2.34 -12.03,-4.36 -3.87,-5.02"/>
    </edge>
    <edge id=":J1_25" function="internal">
        <lane id=":J1_25_0" index="0" speed="8.56" length="19.02" shape="-21.76,2.52 -21.45,1.17 -18.17,-0.84 -12.71,-0.22 -5.08,3.04"/>
    </edge>

    <edge id="-E0" from="J1" to="J0" priority="-1">
        <lane id="-E0_0" index="0" speed="13.89" length="98.02" shape="-28.13,-1.88 -126.15,-2.08"/>
    </edge>
    <edge id="-E1" from="J2" to="J1" priority="-1">
        <lane id="-E1_0" index="0" speed="13.89" length="77.35" shape="73.47,-1.65 -3.87,-1.82"/>
    </edge>
    <edge id="-E2" from="J4" to="J1" priority="-1">
        <lane id="-E2_0" index="0" speed="13.89" length="100.77" shape="-22.64,106.59 -22.54,5.82"/>
    </edge>
    <edge id="-E3" from="J5" to="J1" priority="-1">
        <lane id="-E3_0" index="0" speed="13.89" length="86.91" shape="70.42,46.22 -6.56,5.87"/>
    </edge>
    <edge id="-E4" from="J6" to="J1" priority="-1">
        <lane id="-E4_0" index="0" speed="13.89" length="71.26" shape="-8.10,-81.37 -18.25,-10.84"/>
    </edge>
    <edge id="E0" from="J0" to="J1" priority="-1">
        <lane id="E0_0" index="0" speed="13.89" length="98.02" shape="-126.14,-5.28 -28.13,-5.08"/>
    </edge>
    <edge id="E1" from="J1" to="J2" priority="-1">
        <lane id="E1_0" index="0" speed="13.89" length="77.35" shape="-3.87,-5.02 73.48,-4.85"/>
    </edge>
    <edge id="E2" from="J1" to="J4" priority="-1">
        <lane id="E2_0" index="0" speed="13.89" length="100.77" shape="-19.34,5.82 -19.44,106.59"/>
    </edge>
    <edge id="E3" from="J1" to="J5" priority="-1">
        <lane id="E3_0" index="0" speed="13.89" length="86.91" shape="-5.08,3.04 71.91,43.39"/>
    </edge>
    <edge id="E4" from="J1" to="J6" priority="-1">
        <lane id="E4_0" index="0" speed="13.89" length="71.26" shape="-21.42,-11.30 -11.27,-81.83"/>
    </edge>

    <tlLogic id="J1" type="actuated" programID="0" offset="0">
        <phase duration="27" state="rrrrGGGgrrrrGGggrrrr" minDur="5" maxDur="50"/>
        <phase duration="3"  state="rrrryyyyrrrryyyyrrrr"/>
        <phase duration="27" state="rrrrrrrrGGGgrrrrGGgg" minDur="5" maxDur="50"/>
        <phase duration="3"  state="rrrrrrrryyyyrrrryyyy"/>
        <phase duration="27" state="GGGGGrrrrrrrrrrrrrrr" minDur="5" maxDur="50"/>
        <phase duration="3"  state="yyyyGrrrrrrrrrrrrrrr"/>
    </tlLogic>

    <junction id="J0" type="dead_end" x="-126.15" y="-3.68" incLanes="-E0_0" intLanes="" shape="-126.15,-3.68 -126.15,-0.48 -126.15,-3.68"/>
    <junction id="J1" type="traffic_light" x="-20.93" y="-3.46" incLanes="-E3_0 -E1_0 -E4_0 E0_0 -E2_0" intLanes=":J1_0_0 :J1_1_0 :J1_2_0 :J1_3_0 :J1_4_0 :J1_5_0 :J1_6_0 :J1_20_0 :J1_8_0 :J1_9_0 :J1_10_0 :J1_21_0 :J1_12_0 :J1_13_0 :J1_22_0 :J1_23_0 :J1_16_0 :J1_17_0 :J1_24_0 :J1_25_0" shape="-7.30,7.29 -4.33,1.62 -3.88,-0.22 -3.86,-6.62 -7.93,-6.74 -11.23,-7.08 -13.75,-7.64 -15.50,-8.41 -16.47,-9.40 -16.67,-10.61 -23.01,-11.53 -23.88,-8.83 -24.63,-7.89 -25.59,-7.21 -26.75,-6.81 -28.12,-6.68 -28.14,-0.28 -25.91,0.40 -25.14,1.25 -24.58,2.43 -24.25,3.96 -24.14,5.82 -17.74,5.82 -16.58,4.21 -15.13,4.19 -13.10,4.70 -10.49,5.73">
        <request index="0"  response="00001000010000100000" foes="00001000010000100000" cont="0"/>
        <request index="1"  response="11101000100001100000" foes="11111000110001100000" cont="0"/>
        <request index="2"  response="11100111110011100000" foes="11100111110011100000" cont="0"/>
        <request index="3"  response="11000110001111100000" foes="11000110001111100000" cont="0"/>
        <request index="4"  response="10000000000000000000" foes="10000100001000000000" cont="0"/>
        <request index="5"  response="10000000000000000000" foes="10001100011000001111" cont="0"/>
        <request index="6"  response="01000000100000000000" foes="01111100111000001110" cont="0"/>
        <request index="7"  response="11000111100000000000" foes="11100111111000001100" cont="1"/>
        <request index="8"  response="00000010000000000000" foes="01000010000000001000" cont="0"/>
        <request index="9"  response="00000110000011110000" foes="11000110000011111000" cont="0"/>
        <request index="10" response="00001110000011100010" foes="11001110000011100111" cont="0"/>
        <request index="11" response="00111110000011000110" foes="00111110000011000110" cont="1"/>
        <request index="12" response="00000000000000000000" foes="00100000000010000100" cont="0"/>
        <request index="13" response="01000000100000000000" foes="01100000111110001100" cont="0"/>
        <request index="14" response="11000000100001110000" foes="11100000111011111100" cont="1"/>
        <request index="15" response="11000000100001100000" foes="11100000110001100011" cont="1"/>
        <request index="16" response="00000000000001000010" foes="00000000100001000010" cont="0"/>
        <request index="17" response="00001111000011000000" foes="00001111100011000110" cont="0"/>
        <request index="18" response="00001110011111000010" foes="00001110011111001110" cont="1"/>
        <request index="19" response="00001100011000110010" foes="00001100011010111110" cont="1"/>
    </junction>
    <junction id="J2" type="dead_end" x="73.48" y="-3.25" incLanes="E1_0" intLanes="" shape="73.48,-3.25 73.49,-6.45 73.48,-3.25"/>
    <junction id="J4" type="dead_end" x="-21.04" y="106.59" incLanes="E2_0" intLanes="" shape="-21.04,106.59 -17.84,106.59 -21.04,106.59"/>
    <junction id="J5" type="dead_end" x="71.16" y="44.80" incLanes="E3_0" intLanes="" shape="71.16,44.80 72.65,41.97 71.16,44.80"/>
    <junction id="J6" type="dead_end" x="-9.69" y="-81.60" incLanes="E4_0" intLanes="" shape="-9.69,-81.60 -12.85,-82.06 -9.69,-81.60"/>

    <junction id=":J1_20_0" type="internal" x="-12.34" y="-2.52" incLanes=":J1_7_0 E0_0" intLanes=":J1_2_0 :J1_3_0 :J1_9_0 :J1_10_0 :J1_11_0 :J1_12_0 :J1_13_0 :J1_17_0 :J1_18_0"/>
    <junction id=":J1_21_0" type="internal" x="-19.36" y="-6.91" incLanes=":J1_11_0 -E2_0" intLanes=":J1_1_0 :J1_2_0 :J1_6_0 :J1_7_0 :J1_13_0 :J1_14_0 :J1_15_0 :J1_16_0 :J1_17_0"/>
    <junction id=":J1_22_0" type="internal" x="-24.24" y="-4.36" incLanes=":J1_14_0 -E1_0" intLanes=":J1_2_0 :J1_3_0 :J1_4_0 :J1_5_0 :J1_6_0 :J1_9_0 :J1_10_0 :J1_11_0 :J1_17_0 :J1_18_0 :J1_19_0"/>
    <junction id=":J1_23_0" type="internal" x="-24.28" y="-4.39" incLanes=":J1_15_0 -E1_0" intLanes=":J1_0_0 :J1_1_0 :J1_5_0 :J1_6_0 :J1_10_0 :J1_11_0 :J1_17_0 :J1_18_0 :J1_19_0"/>
    <junction id=":J1_24_0" type="internal" x="-21.76" y="2.65" incLanes=":J1_18_0 -E4_0" intLanes=":J1_1_0 :J1_2_0 :J1_3_0 :J1_6_0 :J1_7_0 :J1_8_0 :J1_9_0 :J1_10_0 :J1_13_0 :J1_14_0 :J1_15_0"/>
    <junction id=":J1_25_0" type="internal" x="-21.76" y="2.52" incLanes=":J1_19_0 -E4_0" intLanes=":J1_1_0 :J1_2_0 :J1_3_0 :J1_4_0 :J1_5_0 :J1_9_0 :J1_10_0 :J1_14_0 :J1_15_0"/>

    <connection from="-E1" to="E3" fromLane="0" toLane="0" via=":J1_4_0" tl="J1" linkIndex="4" dir="r" state="O"/>
    <connection from="-E1" to="E2" fromLane="0" toLane="0" via=":J1_5_0" tl="J1" linkIndex="5" dir="r" state="O"/>
    <connection from="-E1" to="-E0" fromLane="0" toLane="0" via=":J1_6_0" tl="J1" linkIndex="6" dir="s" state="O"/>
    <connection from="-E1" to="E4" fromLane="0" toLane="0" via=":J1_7_0" tl="J1" linkIndex="7" dir="l" state="o"/>
    <connection from="-E2" to="-E0" fromLane="0" toLane="0" via=":J1_16_0" tl="J1" linkIndex="16" dir="r" state="o"/>
    <connection from="-E2" to="E4" fromLane="0" toLane="0" via=":J1_17_0" tl="J1" linkIndex="17" dir="s" state="o"/>
    <connection from="-E2" to="E1" fromLane="0" toLane="0" via=":J1_18_0" tl="J1" linkIndex="18" dir="l" state="o"/>
    <connection from="-E2" to="E3" fromLane="0" toLane="0" via=":J1_19_0" tl="J1" linkIndex="19" dir="l" state="o"/>
    <connection from="-E3" to="E2" fromLane="0" toLane="0" via=":J1_0_0" tl="J1" linkIndex="0" dir="r" state="o"/>
    <connection from="-E3" to="-E0" fromLane="0" toLane="0" via=":J1_1_0" tl="J1" linkIndex="1" dir="s" state="o"/>
    <connection from="-E3" to="E4" fromLane="0" toLane="0" via=":J1_2_0" tl="J1" linkIndex="2" dir="L" state="o"/>
    <connection from="-E3" to="E1" fromLane="0" toLane="0" via=":J1_3_0" tl="J1" linkIndex="3" dir="l" state="o"/>
    <connection from="-E4" to="E1" fromLane="0" toLane="0" via=":J1_8_0" tl="J1" linkIndex="8" dir="r" state="o"/>
    <connection from="-E4" to="E3" fromLane="0" toLane="0" via=":J1_9_0" tl="J1" linkIndex="9" dir="R" state="o"/>
    <connection from="-E4" to="E2" fromLane="0" toLane="0" via=":J1_10_0" tl="J1" linkIndex="10" dir="s" state="o"/>
    <connection from="-E4" to="-E0" fromLane="0" toLane="0" via=":J1_11_0" tl="J1" linkIndex="11" dir="l" state="o"/>
    <connection from="E0" to="E4" fromLane="0" toLane="0" via=":J1_12_0" tl="J1" linkIndex="12" dir="r" state="O"/>
    <connection from="E0" to="E1" fromLane="0" toLane="0" via=":J1_13_0" tl="J1" linkIndex="13" dir="s" state="O"/>
    <connection from="E0" to="E3" fromLane="0" toLane="0" via=":J1_14_0" tl="J1" linkIndex="14" dir="L" state="o"/>
    <connection from="E0" to="E2" fromLane="0" toLane="0" via=":J1_15_0" tl="J1" linkIndex="15" dir="l" state="o"/>

    <connection from=":J1_0" to="E2" fromLane="0" toLane="0" dir="r" state="M"/>
    <connection from=":J1_1" to="-E0" fromLane="0" toLane="0" dir="s" state="M"/>
    <connection from=":J1_2" to="E4" fromLane="0" toLane="0" dir="L" state="M"/>
    <connection from=":J1_3" to="E1" fromLane="0" toLane="0" dir="l" state="M"/>
    <connection from=":J1_4" to="E3" fromLane="0" toLane="0" dir="r" state="M"/>
    <connection from=":J1_5" to="E2" fromLane="0" toLane="0" dir="r" state="M"/>
    <connection from=":J1_6" to="-E0" fromLane="0" toLane="0" dir="s" state="M"/>
    <connection from=":J1_7" to="E4" fromLane="0" toLane="0" via=":J1_20_0" dir="l" state="m"/>
    <connection from=":J1_20" to="E4" fromLane="0" toLane="0" dir="l" state="M"/>
    <connection from=":J1_8" to="E1" fromLane="0" toLane="0" dir="r" state="M"/>
    <connection from=":J1_9" to="E3" fromLane="0" toLane="0" dir="R" state="M"/>
    <connection from=":J1_10" to="E2" fromLane="0" toLane="0" dir="s" state="M"/>
    <connection from=":J1_11" to="-E0" fromLane="0" toLane="0" via=":J1_21_0" dir="l" state="m"/>
    <connection from=":J1_21" to="-E0" fromLane="0" toLane="0" dir="l" state="M"/>
    <connection from=":J1_12" to="E4" fromLane="0" toLane="0" dir="r" state="M"/>
    <connection from=":J1_13" to="E1" fromLane="0" toLane="0" dir="s" state="M"/>
    <connection from=":J1_14" to="E3" fromLane="0" toLane="0" via=":J1_22_0" dir="L" state="m"/>
    <connection from=":J1_22" to="E3" fromLane="0" toLane="0" dir="L" state="M"/>
    <connection from=":J1_15" to="E2" fromLane="0" toLane="0" via=":J1_23_0" dir="l" state="m"/>
    <connection from=":J1_23" to="E2" fromLane="0" toLane="0" dir="l" state="M"/>
    <connection from=":J1_16" to="-E0" fromLane="0" toLane="0" dir="r" state="M"/>
    <connection from=":J1_17" to="E4" fromLane="0" toLane="0" dir="s" state="M"/>
    <connection from=":J1_18" to="E1" fromLane="0" toLane="0" via=":J1_24_0" dir="l" state="m"/>
    <connection from=":J1_24" to="E1" fromLane="0" toLane="0" dir="l" state="M"/>
    <connection from=":J1_19" to="E3" fromLane="0" toLane="0" via=":J1_25_0" dir="l" state="m"/>
    <connection from=":J1_25" to="E3" fromLane="0" toLane="0" dir="l" state="M"/>

</net>
