<?xml version="1.0" encoding="UTF-8"?>

<!-- generated on 2025-02-18 14:06:40 by Eclipse SUMO netedit Version 1.22.0
<neteditConfiguration xmlns:xsi="http://www.w3.org/2001/XMLSchema-instance" xsi:noNamespaceSchemaLocation="http://sumo.dlr.de/xsd/neteditConfiguration.xsd">

    <input>
        <sumocfg-file value="C:\Users\kiyol\Documents\Project ITS\Tracikeputih\tracikeputih.sumocfg"/>
        <route-files value="C:\Users\kiyol\Documents\Project ITS\Tracikeputih\tracikeputih.rou.xml"/>
        <sumo-net-file value="C:\Users\kiyol\Documents\Project ITS\Tracikeputih\tracikeputih.net.xml"/>
    </input>

    <output>
        <output-file value="C:\Users\kiyol\Documents\Project ITS\Tracikeputih\tracikeputih.net.xml"/>
    </output>

    <processing>
        <offset.disable-normalization value="true"/>
    </processing>

    <junctions>
        <no-turnarounds value="true"/>
    </junctions>

    <netedit>
        <new-network value="false"/>
    </netedit>

</neteditConfiguration>
-->

<net version="1.20" junctionCornerDetail="5" limitTurnSpeed="5.50" xmlns:xsi="http://www.w3.org/2001/XMLSchema-instance" xsi:noNamespaceSchemaLocation="http://sumo.dlr.de/xsd/net_file.xsd">

    <location netOffset="0.00,0.00" convBoundary="-89.25,-104.10,113.40,91.04" origBoundary="10000000000.00,10000000000.00,-10000000000.00,-10000000000.00" projParameter="!"/>

    <edge id=":J1_0" function="internal">
        <lane id=":J1_0_0" index="0" speed="6.85" length="10.11" shape="2.27,10.07 1.92,7.05 0.86,4.89 -0.89,3.60 -3.34,3.16"/>
    </edge>
    <edge id=":J1_1" function="internal">
        <lane id=":J1_1_0" index="0" speed="13.89" length="16.48" shape="2.27,10.07 2.35,6.09 2.59,1.84 2.99,-2.40 3.52,-6.34"/>
    </edge>
    <edge id=":J1_2" function="internal">
        <lane id=":J1_2_0" index="0" speed="11.24" length="2.39" shape="2.27,10.07 3.06,7.81"/>
    </edge>
    <edge id=":J1_3" function="internal">
        <lane id=":J1_3_0" index="0" speed="9.88" length="2.10" shape="2.27,10.07 3.07,8.13"/>
    </edge>
    <edge id=":J1_20" function="internal">
        <lane id=":J1_20_0" index="0" speed="11.24" length="26.67" shape="3.06,7.81 3.81,5.65 8.44,2.50 16.16,0.60 26.97,-0.03"/>
    </edge>
    <edge id=":J1_21" function="internal">
        <lane id=":J1_21_0" index="0" speed="9.88" length="25.73" shape="3.07,8.13 4.23,5.29 9.50,3.84 17.15,4.88 26.23,7.59"/>
    </edge>
    <edge id=":J1_4" function="internal">
        <lane id=":J1_4_0" index="0" speed="8.76" length="21.62" shape="25.19,10.61 16.56,8.03 10.40,7.08 6.70,7.76 5.47,10.07"/>
    </edge>
    <edge id=":J1_5" function="internal">
        <lane id=":J1_5_0" index="0" speed="13.89" length="29.53" shape="25.19,10.61 19.44,8.76 11.03,6.28 2.57,4.10 -3.34,3.16"/>
    </edge>
    <edge id=":J1_6" function="internal">
        <lane id=":J1_6_0" index="0" speed="12.07" length="29.23" shape="25.19,10.61 15.16,6.57 8.21,2.39 4.33,-1.91 3.52,-6.34"/>
    </edge>
    <edge id=":J1_7" function="internal">
        <lane id=":J1_7_0" index="0" speed="6.05" length="14.93" shape="25.19,10.61 22.24,8.13 21.71,4.56 23.37,1.36 26.97,-0.03"/>
    </edge>
    <edge id=":J1_8" function="internal">
        <lane id=":J1_8_0" index="0" speed="5.94" length="14.30" shape="26.97,3.17 21.84,3.45 20.01,4.28 21.47,5.66 26.23,7.59"/>
    </edge>
    <edge id=":J1_9" function="internal">
        <lane id=":J1_9_0" index="0" speed="10.28" length="24.13" shape="26.97,3.17 17.56,3.60 10.84,4.90 6.81,7.05 5.47,10.07"/>
    </edge>
    <edge id=":J1_10" function="internal">
        <lane id=":J1_10_0" index="0" speed="13.89" length="30.31" shape="26.97,3.17 -3.34,3.16"/>
    </edge>
    <edge id=":J1_11" function="internal">
        <lane id=":J1_11_0" index="0" speed="10.17" length="10.34" shape="26.97,3.17 19.64,2.36 16.78,1.57"/>
    </edge>
    <edge id=":J1_22" function="internal">
        <lane id=":J1_22_0" index="0" speed="10.17" length="16.11" shape="16.78,1.57 11.79,0.20 5.67,-2.85 3.52,-6.34"/>
    </edge>
    <edge id=":J1_12" function="internal">
        <lane id=":J1_12_0" index="0" speed="9.43" length="22.60" shape="6.68,-5.83 7.59,-3.29 11.28,-1.48 17.74,-0.39 26.97,-0.03"/>
    </edge>
    <edge id=":J1_13" function="internal">
        <lane id=":J1_13_0" index="0" speed="11.16" length="24.87" shape="6.68,-5.83 7.51,-2.62 11.05,0.69 17.29,4.09 26.23,7.59"/>
    </edge>
    <edge id=":J1_14" function="internal">
        <lane id=":J1_14_0" index="0" speed="13.89" length="15.96" shape="6.68,-5.83 6.15,-1.97 5.77,2.09 5.54,6.17 5.47,10.07"/>
    </edge>
    <edge id=":J1_15" function="internal">
        <lane id=":J1_15_0" index="0" speed="8.69" length="4.11" shape="6.68,-5.83 5.50,-1.89"/>
    </edge>
    <edge id=":J1_23" function="internal">
        <lane id=":J1_23_0" index="0" speed="8.69" length="10.75" shape="5.50,-1.89 3.44,0.92 0.50,2.61 -3.34,3.16"/>
    </edge>
    <edge id=":J1_16" function="internal">
        <lane id=":J1_16_0" index="0" speed="7.32" length="10.28" shape="-3.33,-0.04 -0.72,-0.43 1.29,-1.61 2.71,-3.58 3.52,-6.34"/>
    </edge>
    <edge id=":J1_17" function="internal">
        <lane id=":J1_17_0" index="0" speed="13.89" length="30.30" shape="-3.33,-0.04 26.97,-0.03"/>
    </edge>
    <edge id=":J1_18" function="internal">
        <lane id=":J1_18_0" index="0" speed="13.89" length="4.53" shape="-3.33,-0.04 1.14,0.68"/>
    </edge>
    <edge id=":J1_19" function="internal">
        <lane id=":J1_19_0" index="0" speed="8.28" length="3.90" shape="-3.33,-0.04 0.51,0.60"/>
    </edge>
    <edge id=":J1_24" function="internal">
        <lane id=":J1_24_0" index="0" speed="13.89" length="26.04" shape="1.14,0.68 2.73,0.93 11.55,3.17 20.32,5.71 26.23,7.59"/>
    </edge>
    <edge id=":J1_25" function="internal">
        <lane id=":J1_25_0" index="0" speed="8.28" length="11.35" shape="0.51,0.60 3.26,2.50 4.91,5.65 5.47,10.07"/>
    </edge>

    <edge id="-E0" from="J1" to="J0" priority="-1">
        <lane id="-E0_0" index="0" speed="13.89" length="85.92" shape="-3.34,3.16 -89.26,3.03"/>
    </edge>
    <edge id="-E1" from="J2" to="J1" priority="-1">
        <lane id="-E1_0" index="0" speed="13.89" length="78.59" shape="105.56,3.17 26.97,3.17"/>
    </edge>
    <edge id="-E2" from="J3" to="J1" priority="-1">
        <lane id="-E2_0" index="0" speed="13.89" length="80.98" shape="2.43,91.05 2.27,10.07"/>
    </edge>
    <edge id="-E3" from="J5" to="J1" priority="-1">
        <lane id="-E3_0" index="0" speed="13.89" length="99.29" shape="22.57,-103.84 6.68,-5.83"/>
    </edge>
    <edge id="-E4" from="J6" to="J1" priority="-1">
        <lane id="-E4_0" index="0" speed="13.89" length="92.74" shape="112.88,40.82 25.19,10.61"/>
    </edge>
    <edge id="E0" from="J0" to="J1" priority="-1">
        <lane id="E0_0" index="0" speed="13.89" length="85.92" shape="-89.25,-0.17 -3.33,-0.04"/>
    </edge>
    <edge id="E1" from="J1" to="J2" priority="-1">
        <lane id="E1_0" index="0" speed="13.89" length="78.59" shape="26.97,-0.03 105.56,-0.03"/>
    </edge>
    <edge id="E2" from="J1" to="J3" priority="-1">
        <lane id="E2_0" index="0" speed="13.89" length="80.98" shape="5.47,10.07 5.63,91.04"/>
    </edge>
    <edge id="E3" from="J1" to="J5" priority="-1">
        <lane id="E3_0" index="0" speed="13.89" length="99.29" shape="3.52,-6.34 19.42,-104.36"/>
    </edge>
    <edge id="E4" from="J1" to="J6" priority="-1">
        <lane id="E4_0" index="0" speed="13.89" length="92.74" shape="26.23,7.59 113.92,37.79"/>
    </edge>

    <tlLogic id="J1" type="actuated" programID="0" offset="0">
        <phase duration="27" state="rrrrrrrrGGGgrrrrGGgg" minDur="5" maxDur="50"/>
        <phase duration="3"  state="rrrrrrrryyyyrrrryyyy"/>
        <phase duration="27" state="GGggrrrrrrrrGGGgrrrr" minDur="5" maxDur="50"/>
        <phase duration="3"  state="yyyyrrrrrrrryyyyrrrr"/>
        <phase duration="27" state="rrrrGGGGGrrrrrrrrrrr" minDur="5" maxDur="50"/>
        <phase duration="3"  state="rrrryyyyGrrrrrrrrrrr"/>
    </tlLogic>

    <junction id="J0" type="dead_end" x="-89.25" y="1.43" incLanes="-E0_0" intLanes="" shape="-89.25,1.43 -89.26,4.63 -89.25,1.43"/>
    <junction id="J1" type="traffic_light" x="3.86" y="1.57" incLanes="-E2_0 -E4_0 -E1_0 -E3_0 E0_0" intLanes=":J1_0_0 :J1_1_0 :J1_20_0 :J1_21_0 :J1_4_0 :J1_5_0 :J1_6_0 :J1_7_0 :J1_8_0 :J1_9_0 :J1_10_0 :J1_22_0 :J1_12_0 :J1_13_0 :J1_14_0 :J1_23_0 :J1_16_0 :J1_17_0 :J1_24_0 :J1_25_0" shape="0.67,10.08 7.07,10.06 9.02,8.51 11.47,8.58 14.89,9.20 19.29,10.39 24.67,12.13 26.75,6.08 26.97,4.77 26.97,-1.63 21.08,-1.74 16.29,-2.07 12.62,-2.61 10.05,-3.38 8.60,-4.37 8.26,-5.57 1.94,-6.60 1.00,-3.84 0.22,-2.87 -0.76,-2.19 -1.94,-1.77 -3.33,-1.64 -3.34,4.76 -1.11,5.36 -0.34,6.09 0.22,7.13 0.56,8.45">
        <request index="0"  response="00000000010000100000" foes="00001000010000100000" cont="0"/>
        <request index="1"  response="11110000110000000000" foes="11111000110001100000" cont="0"/>
        <request index="2"  response="11100111110000100000" foes="11100111110011100000" cont="1"/>
        <request index="3"  response="11000110001100100000" foes="11000110001111100000" cont="1"/>
        <request index="4"  response="10000100001000000000" foes="10000100001000000000" cont="0"/>
        <request index="5"  response="10001000011000001110" foes="10001100011000001111" cont="0"/>
        <request index="6"  response="01111100111000001110" foes="01111100111000001110" cont="0"/>
        <request index="7"  response="01100011111000001100" foes="01100011111000001100" cont="0"/>
        <request index="8"  response="00000000000000001000" foes="01000010000000001000" cont="0"/>
        <request index="9"  response="00000000000000001000" foes="11000110000011111000" cont="0"/>
        <request index="10" response="00001000000000000100" foes="11001110000011100111" cont="0"/>
        <request index="11" response="00111000000000000100" foes="00111110000011000110" cont="1"/>
        <request index="12" response="00100000000000000000" foes="00100000000010000100" cont="0"/>
        <request index="13" response="01100000111100000000" foes="01100000111110001100" cont="0"/>
        <request index="14" response="11100000111000100000" foes="11100000111001111100" cont="0"/>
        <request index="15" response="11100000110001100011" foes="11100000110001100011" cont="1"/>
        <request index="16" response="00000000000000000000" foes="00000000100001000010" cont="0"/>
        <request index="17" response="00001000000000000100" foes="00001111100011000110" cont="0"/>
        <request index="18" response="00001000011100001100" foes="00001110011111001110" cont="1"/>
        <request index="19" response="00001000011000001100" foes="00001100011000111110" cont="1"/>
    </junction>
    <junction id="J2" type="dead_end" x="105.56" y="1.57" incLanes="E1_0" intLanes="" shape="105.56,1.57 105.56,-1.63 105.56,1.57"/>
    <junction id="J3" type="dead_end" x="4.03" y="91.04" incLanes="E2_0" intLanes="" shape="4.03,91.04 7.23,91.04 4.03,91.04"/>
    <junction id="J5" type="dead_end" x="21.00" y="-104.10" incLanes="E3_0" intLanes="" shape="21.00,-104.10 17.84,-104.61 21.00,-104.10"/>
    <junction id="J6" type="dead_end" x="113.40" y="39.31" incLanes="E4_0" intLanes="" shape="113.40,39.31 114.44,36.28 113.40,39.31"/>

    <junction id=":J1_20_0" type="internal" x="3.06" y="7.81" incLanes=":J1_2_0 -E3_0" intLanes=":J1_5_0 :J1_6_0 :J1_7_0 :J1_10_0 :J1_11_0 :J1_12_0 :J1_13_0 :J1_14_0 :J1_17_0 :J1_18_0 :J1_19_0"/>
    <junction id=":J1_21_0" type="internal" x="3.07" y="8.13" incLanes=":J1_3_0 -E3_0" intLanes=":J1_5_0 :J1_6_0 :J1_7_0 :J1_8_0 :J1_9_0 :J1_13_0 :J1_14_0 :J1_18_0 :J1_19_0"/>
    <junction id=":J1_22_0" type="internal" x="16.78" y="1.57" incLanes=":J1_11_0 E0_0" intLanes=":J1_1_0 :J1_2_0 :J1_6_0 :J1_7_0 :J1_13_0 :J1_14_0 :J1_15_0 :J1_16_0 :J1_17_0"/>
    <junction id=":J1_23_0" type="internal" x="5.50" y="-1.89" incLanes=":J1_15_0 -E2_0" intLanes=":J1_0_0 :J1_1_0 :J1_5_0 :J1_6_0 :J1_10_0 :J1_11_0 :J1_17_0 :J1_18_0 :J1_19_0"/>
    <junction id=":J1_24_0" type="internal" x="1.14" y="0.68" incLanes=":J1_18_0 -E1_0" intLanes=":J1_1_0 :J1_2_0 :J1_3_0 :J1_6_0 :J1_7_0 :J1_8_0 :J1_9_0 :J1_10_0 :J1_13_0 :J1_14_0 :J1_15_0"/>
    <junction id=":J1_25_0" type="internal" x="0.51" y="0.60" incLanes=":J1_19_0 -E1_0" intLanes=":J1_1_0 :J1_2_0 :J1_3_0 :J1_4_0 :J1_5_0 :J1_9_0 :J1_10_0 :J1_14_0 :J1_15_0"/>

    <connection from="-E1" to="E4" fromLane="0" toLane="0" via=":J1_8_0" tl="J1" linkIndex="8" dir="r" state="O"/>
    <connection from="-E1" to="E2" fromLane="0" toLane="0" via=":J1_9_0" tl="J1" linkIndex="9" dir="r" state="O"/>
    <connection from="-E1" to="-E0" fromLane="0" toLane="0" via=":J1_10_0" tl="J1" linkIndex="10" dir="s" state="O"/>
    <connection from="-E1" to="E3" fromLane="0" toLane="0" via=":J1_11_0" tl="J1" linkIndex="11" dir="l" state="o"/>
    <connection from="-E2" to="-E0" fromLane="0" toLane="0" via=":J1_0_0" tl="J1" linkIndex="0" dir="r" state="o"/>
    <connection from="-E2" to="E3" fromLane="0" toLane="0" via=":J1_1_0" tl="J1" linkIndex="1" dir="s" state="o"/>
    <connection from="-E2" to="E1" fromLane="0" toLane="0" via=":J1_2_0" tl="J1" linkIndex="2" dir="l" state="o"/>
    <connection from="-E2" to="E4" fromLane="0" toLane="0" via=":J1_3_0" tl="J1" linkIndex="3" dir="l" state="o"/>
    <connection from="-E3" to="E1" fromLane="0" toLane="0" via=":J1_12_0" tl="J1" linkIndex="12" dir="r" state="o"/>
    <connection from="-E3" to="E4" fromLane="0" toLane="0" via=":J1_13_0" tl="J1" linkIndex="13" dir="R" state="o"/>
    <connection from="-E3" to="E2" fromLane="0" toLane="0" via=":J1_14_0" tl="J1" linkIndex="14" dir="s" state="o"/>
    <connection from="-E3" to="-E0" fromLane="0" toLane="0" via=":J1_15_0" tl="J1" linkIndex="15" dir="l" state="o"/>
    <connection from="-E4" to="E2" fromLane="0" toLane="0" via=":J1_4_0" tl="J1" linkIndex="4" dir="r" state="o"/>
    <connection from="-E4" to="-E0" fromLane="0" toLane="0" via=":J1_5_0" tl="J1" linkIndex="5" dir="s" state="o"/>
    <connection from="-E4" to="E3" fromLane="0" toLane="0" via=":J1_6_0" tl="J1" linkIndex="6" dir="L" state="o"/>
    <connection from="-E4" to="E1" fromLane="0" toLane="0" via=":J1_7_0" tl="J1" linkIndex="7" dir="l" state="o"/>
    <connection from="E0" to="E3" fromLane="0" toLane="0" via=":J1_16_0" tl="J1" linkIndex="16" dir="r" state="O"/>
    <connection from="E0" to="E1" fromLane="0" toLane="0" via=":J1_17_0" tl="J1" linkIndex="17" dir="s" state="O"/>
    <connection from="E0" to="E4" fromLane="0" toLane="0" via=":J1_18_0" tl="J1" linkIndex="18" dir="L" state="o"/>
    <connection from="E0" to="E2" fromLane="0" toLane="0" via=":J1_19_0" tl="J1" linkIndex="19" dir="l" state="o"/>

    <connection from=":J1_0" to="-E0" fromLane="0" toLane="0" dir="r" state="M"/>
    <connection from=":J1_1" to="E3" fromLane="0" toLane="0" dir="s" state="M"/>
    <connection from=":J1_2" to="E1" fromLane="0" toLane="0" via=":J1_20_0" dir="l" state="m"/>
    <connection from=":J1_20" to="E1" fromLane="0" toLane="0" dir="l" state="M"/>
    <connection from=":J1_3" to="E4" fromLane="0" toLane="0" via=":J1_21_0" dir="l" state="m"/>
    <connection from=":J1_21" to="E4" fromLane="0" toLane="0" dir="l" state="M"/>
    <connection from=":J1_4" to="E2" fromLane="0" toLane="0" dir="r" state="M"/>
    <connection from=":J1_5" to="-E0" fromLane="0" toLane="0" dir="s" state="M"/>
    <connection from=":J1_6" to="E3" fromLane="0" toLane="0" dir="L" state="M"/>
    <connection from=":J1_7" to="E1" fromLane="0" toLane="0" dir="l" state="M"/>
    <connection from=":J1_8" to="E4" fromLane="0" toLane="0" dir="r" state="M"/>
    <connection from=":J1_9" to="E2" fromLane="0" toLane="0" dir="r" state="M"/>
    <connection from=":J1_10" to="-E0" fromLane="0" toLane="0" dir="s" state="M"/>
    <connection from=":J1_11" to="E3" fromLane="0" toLane="0" via=":J1_22_0" dir="l" state="m"/>
    <connection from=":J1_22" to="E3" fromLane="0" toLane="0" dir="l" state="M"/>
    <connection from=":J1_12" to="E1" fromLane="0" toLane="0" dir="r" state="M"/>
    <connection from=":J1_13" to="E4" fromLane="0" toLane="0" dir="R" state="M"/>
    <connection from=":J1_14" to="E2" fromLane="0" toLane="0" dir="s" state="M"/>
    <connection from=":J1_15" to="-E0" fromLane="0" toLane="0" via=":J1_23_0" dir="l" state="m"/>
    <connection from=":J1_23" to="-E0" fromLane="0" toLane="0" dir="l" state="M"/>
    <connection from=":J1_16" to="E3" fromLane="0" toLane="0" dir="r" state="M"/>
    <connection from=":J1_17" to="E1" fromLane="0" toLane="0" dir="s" state="M"/>
    <connection from=":J1_18" to="E4" fromLane="0" toLane="0" via=":J1_24_0" dir="L" state="m"/>
    <connection from=":J1_24" to="E4" fromLane="0" toLane="0" dir="L" state="M"/>
    <connection from=":J1_19" to="E2" fromLane="0" toLane="0" via=":J1_25_0" dir="l" state="m"/>
    <connection from=":J1_25" to="E2" fromLane="0" toLane="0" dir="l" state="M"/>

</net>
