<?xml version="1.0" encoding="UTF-8"?>

<!-- generated on 2025-02-18 14:06:39 by Eclipse SUMO netedit Version 1.22.0
-->

<routes xmlns:xsi="http://www.w3.org/2001/XMLSchema-instance" xsi:noNamespaceSchemaLocation="http://sumo.dlr.de/xsd/routes_file.xsd">
    <!-- Routes -->
    <route id="r_0" edges="-E3 -E0"/>
    <route id="r_1" edges="-E1 E2"/>
    <route id="r_2" edges="-E4 E3"/>
    <route id="r_3" edges="-E2 -E0"/>
    <route id="r_4" edges="E0 E2"/>
    <route id="r_5" edges="-E2 E1"/>
    <route id="r_6" edges="-E3 E4"/>
    <!-- Vehicles, persons and containers (sorted by depart) -->
    <flow id="f_0" begin="0.00" route="r_3" end="3600.00" vehsPerHour="1800"/>
    <flow id="f_1" begin="0.00" route="r_2" end="3600.00" vehsPerHour="1800"/>
    <flow id="f_2" begin="0.00" route="r_2" end="3600.00" vehsPerHour="1800"/>
    <flow id="f_3" begin="0.00" route="r_0" end="3600.00" vehsPerHour="1800"/>
    <flow id="f_4" begin="0.00" route="r_1" end="3600.00" vehsPerHour="1800"/>
    <flow id="f_5" begin="0.00" route="r_4" end="3600.00" vehsPerHour="1800"/>
    <flow id="f_6" begin="0.00" route="r_5" end="3600.00" vehsPerHour="1800"/>
    <flow id="f_7" begin="0.00" route="r_6" end="3600.00" vehsPerHour="1800"/>
</routes>
